/*--------------------------------*- C++ -*----------------------------------*\
| =========                 |                                                 |
| \\      /  F ield         | OpenFOAM: The Open Source CFD Toolbox           |
|  \\    /   O peration     | Version:  9                                     |
|   \\  /    A nd           | Web:      www.OpenFOAM.org                      |
|    \\/     M anipulation  |                                                 |
\*---------------------------------------------------------------------------*/
FoamFile
{
    version     2.0;
    format      binary;
    class       volScalarField;
    location    "0";
    object      S;
}
// * * * * * * * * * * * * * * * * * * * * * * * * * * * * * * * * * * * * * //

dimensions      [0 0 0 0 0 0 0];

internalField   uniform 0;

boundaryField
{
    inlet
    {
        type            fixedValue;
        value           uniform 0;
    }
    
    outlet 
    {
        type            inletOutlet;
        inletValue      uniform 0;
        value           uniform 0;
    }

    cylinder_set1_0
    {
      type            zeroGradient;
    }
    cylinder_set1_1
    {
      type            zeroGradient;
    }
    cylinder_set1_2
    {
      type            zeroGradient;
    }
    cylinder_set1_3
    {
      type            zeroGradient;
    }
    cylinder_set1_4
    {
      type            zeroGradient;
    }
    cylinder_set1_5
    {
      type            zeroGradient;
    }
    cylinder_set1_6
    {
      type            zeroGradient;
    }
    cylinder_set1_7
    {
      type            zeroGradient;
    }
    cylinder_set1_8
    {
      type            zeroGradient;
    }
    cylinder_set1_9
    {
      type            zeroGradient;
    }
    cylinder_set1_10
    {
      type            zeroGradient;
    }
    cylinder_set1_11
    {
      type            zeroGradient;
    }
    cylinder_set1_12
    {
      type            zeroGradient;
    }
    cylinder_set1_13
    {
      type            zeroGradient;
    }
    cylinder_set1_14
    {
      type            zeroGradient;
    }
    cylinder_set1_15
    {
      type            zeroGradient;
    }

    cylinder_set2_0
    {
      type            zeroGradient;
    }
    cylinder_set2_1
    {
      type            zeroGradient;
    }
    cylinder_set2_2
    {
      type            zeroGradient;
    }
    cylinder_set2_3
    {
      type            zeroGradient;
    }
    cylinder_set2_4
    {
      type            zeroGradient;
    }
    cylinder_set2_5
    {
      type            zeroGradient;
    }
    cylinder_set2_6
    {
      type            zeroGradient;
    }
    cylinder_set2_7
    {
      type            zeroGradient;
    }
    cylinder_set2_8
    {
      type            zeroGradient;
    }
    cylinder_set2_9
    {
      type            zeroGradient;
    }
    cylinder_set2_10
    {
      type            zeroGradient;
    }
    cylinder_set2_11
    {
      type            zeroGradient;
    }
    cylinder_set2_12
    {
      type            zeroGradient;
    }
    cylinder_set2_13
    {
      type            zeroGradient;
    }
    cylinder_set2_14
    {
      type            zeroGradient;
    }
    cylinder_set2_15
    {
      type            zeroGradient;
    }

    bottom
    {
        type            zeroGradient;
    }

    top
    {
        type            slip;
    }

    front
    {
        type            empty;
    }

    back
    {
        type            empty;
    }
}


// ************************************************************************* //
