/*--------------------------------*- C++ -*----------------------------------*\
| =========                 |                                                 |
| \\      /  F ield         | OpenFOAM: The Open Source CFD Toolbox           |
|  \\    /   O peration     | Version:  9                                     |
|   \\  /    A nd           | Web:      www.OpenFOAM.org                      |
|    \\/     M anipulation  |                                                 |
\*---------------------------------------------------------------------------*/
FoamFile
{
    version     2.0;
    format      ascii;
    class       volVectorField;
    object      U;
}
// * * * * * * * * * * * * * * * * * * * * * * * * * * * * * * * * * * * * * //

dimensions      [0 1 -1 0 0 0 0];

internalField   uniform (0 0 0);

boundaryField
{
    inlet
    {
        type            fixedValue;
        value           uniform (0.0 0 0);
    }

    outlet
    {
        type            inletOutlet;
        value           $internalField;
        inletValue      uniform (0 0 0);
    }

    cylinder_set1_1
    {
        type            codedFixedValue;
        value           uniform (0 0 0);
        name            myBC_1_1;

        code
        #{
            static const scalar shiftX = 1.5;
            static const scalar shiftY = 1.55;
            static const vector CENTER(shiftX, shiftY, 0.0);
            static const scalar rotate_speed_max = - 1500000.0/60*6.28;
            const fvPatch& boundaryPatch = patch();
            const vectorField& Cf = boundaryPatch.Cf();
            vectorField rot = rotate_speed_max * vector(0,0,1) ^ (Cf- CENTER);
            operator==(rot);
        #};
    }
    cylinder_set1_2
    {
        type            codedFixedValue;
        value           uniform (0 0 0);
        name            myBC_1_2;

        code
        #{
            static const scalar shiftX = 1.5;
            static const scalar shiftY = 1.45;
            static const vector CENTER(shiftX, shiftY, 0.0);
            static const scalar rotate_speed_max = 1500000.0/60*6.28;
            const fvPatch& boundaryPatch = patch();
            const vectorField& Cf = boundaryPatch.Cf();
            vectorField rot = rotate_speed_max * vector(0,0,1) ^ (Cf- CENTER);
            operator==(rot);
        #};
    }

    bottom
    {
        type            fixedValue;
        value           uniform (0 0 0);
    }

    top
    {
        type            slip;
    }

    front
    {
        type            empty;
    }

    back
    {
        type            empty;
    }
}

// ************************************************************************* //
